*Heading
** Job name: GMNA Model name: GMNA
** Generated by: Abaqus/CAE 2019
*Preprint, echo=NO, model=NO, history=NO, contact=NO
**
** PARTS
**
*Part, name=Part-1
*Node
      1,   960.117615,   279.596466,           0.
      2,           0.,   279.596466,   960.117615
      3,           0.,           0.,        1000.
      4,        1000.,           0.,           0.
      5,           0.,   279.596466,  -960.117615
      6,           0.,   559.190002,  -829.039551
      7,   829.039551,   559.190002,           0.
      8,  -960.117615,   279.596466,           0.
      9,  -829.039551,   559.190002,           0.
     10,       -1000.,           0.,           0.
     11,           0.,   559.190002,   829.039551
     12,           0.,           0.,       -1000.
     13,   960.008118,   279.596466,   14.5008831
     14,   959.679565,   279.596466,   28.9984589
     15,   959.132141,   279.596466,    43.489418
     16,   958.365906,   279.596466,    57.970459
     17,   957.381104,   279.596466,   72.4382706
     18,   956.177795,   279.596466,   86.8895645
     19,    954.75647,   279.596466,   101.321037
     20,   953.117249,   279.596466,   115.729393
** ... 17782 like lines cut
*Element, type=S4R
   1,    1,   13, 1403,  256
   2,   13,   14, 1404, 1403
   3,   14,   15, 1405, 1404
   4,   15,   16, 1406, 1405
   5,   16,   17, 1407, 1406
   6,   17,   18, 1408, 1407
   7,   18,   19, 1409, 1408
   8,   19,   20, 1410, 1409
   9,   20,   21, 1411, 1410
  10,   21,   22, 1412, 1411
  11,   22,   23, 1413, 1412
  12,   23,   24, 1414, 1413
  13,   24,   25, 1415, 1414
  14,   25,   26, 1416, 1415
  15,   26,   27, 1417, 1416
  16,   27,   28, 1418, 1417
  17,   28,   29, 1419, 1418
  18,   29,   30, 1420, 1419
  19,   30,   31, 1421, 1420
  20,   31,   32, 1422, 1421
** ... 17368 like lines cut
*Nset, nset=Set-1, generate
     1,  17802,      1
*Elset, elset=Set-1, generate
     1,  17388,      1
** Section: Section-1
*Shell Section, elset=Set-1, material=Steel
1.32, 5
*End Part
**  
**
** ASSEMBLY
**
*Assembly, name=Assembly
**  
*Instance, name=Part-1-1, part=Part-1
*End Instance
**  
*Node
      1,           0.,           0.,           0.
*Node
      2,           0.,   559.190002,           0.
*Nset, nset=Set-5
 1,
*Nset, nset=Set-6
 2,
*Nset, nset=Set-7
 2,
*Nset, nset=Set-8, instance=Part-1-1
 1,
*Nset, nset=Set-9, instance=Part-1-1
 1,
*Nset, nset=t_Set-1, instance=Part-1-1
    6,    7,    9,   11,  380,  381,  382,  383,  384,  385,  386,  387,  388,  389,  390,  391
  392,  393,  394,  395,  396,  397,  398,  399,  400,  401,  402,  403,  404,  405,  406,  407
  408,  409,  410,  411,  412,  413,  414,  415,  416,  417,  418,  419,  420,  421,  422,  423
  424,  425,  426,  427,  428,  429,  430,  431,  432,  433,  434,  435,  436,  437,  438,  439
  440,  441,  442,  443,  444,  445,  446,  447,  448,  449,  450,  451,  452,  453,  454,  455
  456,  457,  458,  459,  460,  461,  462,  463,  464,  465,  466,  467,  468,  469,  470,  471
  472,  473,  474,  475,  476,  477,  478,  479,  480,  481,  626,  627,  628,  629,  630,  631
  632,  633,  634,  635,  636,  637,  638,  639,  640,  641,  642,  643,  644,  645,  646,  647
  648,  649,  650,  651,  652,  653,  654,  655,  656,  657,  658,  659,  660,  661,  662,  663
  664,  665,  666,  667,  668,  669,  670,  671,  672,  673,  674,  675,  676,  677,  678,  679
  680,  681,  682,  683,  684,  685,  686,  687,  688,  689,  690,  691,  692,  693,  694,  695
  696,  697,  698,  699,  700,  701,  702,  703,  704,  705,  706,  707,  708,  709,  710,  711
  712,  713,  714,  715,  716,  717,  718,  719,  720,  721,  722,  723,  724,  725,  726,  727
  974,  975,  976,  977,  978,  979,  980,  981,  982,  983,  984,  985,  986,  987,  988,  989
  990,  991,  992,  993,  994,  995,  996,  997,  998,  999, 1000, 1001, 1002, 1003, 1004, 1005
 1006, 1007, 1008, 1009, 1010, 1011, 1012, 1013, 1014, 1015, 1016, 1017, 1018, 1019, 1020, 1021
 1022, 1023, 1024, 1025, 1026, 1027, 1028, 1029, 1030, 1031, 1032, 1033, 1034, 1035, 1036, 1037
 1038, 1039, 1040, 1041, 1042, 1043, 1044, 1045, 1046, 1047, 1048, 1049, 1050, 1051, 1052, 1053
 1054, 1055, 1056, 1057, 1058, 1059, 1060, 1061, 1062, 1063, 1064, 1065, 1066, 1067, 1068, 1069
 1070, 1071, 1072, 1073, 1074, 1075, 1076, 1300, 1301, 1302, 1303, 1304, 1305, 1306, 1307, 1308
** ... 6 like lines cut
*Elset, elset=t_Set-1, instance=Part-1-1
  4244,  4245,  4246,  4247,  4248,  4249,  4250,  4251,  4252,  4253,  4254,  4255,  4256,  4257,  4258,  4259
  4260,  4261,  4262,  4263,  4264,  4265,  4266,  4267,  4268,  4269,  4270,  4271,  4272,  4273,  4274,  4275
  4276,  4277,  4278,  4279,  4280,  4281,  4282,  4283,  4284,  4285,  4286,  4287,  4288,  4289,  4290,  4291
  4292,  4293,  4294,  4295,  4296,  4297,  4298,  4299,  4300,  4301,  4302,  4303,  4304,  4305,  4306,  4307
  4308,  4309,  4310,  4311,  4312,  4313,  4314,  4315,  4316,  4317,  4318,  4319,  4320,  4321,  4322,  4323
  4324,  4325,  4326,  4327,  4328,  4329,  4330,  4331,  4332,  4333,  4334,  4335,  4336,  4337,  4338,  4339
  4340,  4341,  4342,  4343,  4344,  4345,  4346,  6510,  6511,  6512,  6513,  6514,  6515,  6516,  6517,  6518
  6519,  6520,  6521,  6522,  6523,  6524,  6525,  6526,  6527,  6528,  6529,  6530,  6531,  6532,  6533,  6534
  6535,  6536,  6537,  6538,  6539,  6540,  6541,  6542,  6543,  6544,  6545,  6546,  6547,  6548,  6549,  6550
  6551,  6552,  6553,  6554,  6555,  6556,  6557,  6558,  6559,  6560,  6561,  6562,  6563,  6564,  6565,  6566
  6567,  6568,  6569,  6570,  6571,  6572,  6573,  6574,  6575,  6576,  6577,  6578,  6579,  6580,  6581,  6582
  6583,  6584,  6585,  6586,  6587,  6588,  6589,  6590,  6591,  6592,  6593,  6594,  6595,  6596,  6597,  6598
  6599,  6600,  6601,  6602,  6603,  6604,  6605,  6606,  6607,  6608,  6609,  6610,  6611,  6612, 10877, 10878
 10879, 10880, 10881, 10882, 10883, 10884, 10885, 10886, 10887, 10888, 10889, 10890, 10891, 10892, 10893, 10894
 10895, 10896, 10897, 10898, 10899, 10900, 10901, 10902, 10903, 10904, 10905, 10906, 10907, 10908, 10909, 10910
 10911, 10912, 10913, 10914, 10915, 10916, 10917, 10918, 10919, 10920, 10921, 10922, 10923, 10924, 10925, 10926
 10927, 10928, 10929, 10930, 10931, 10932, 10933, 10934, 10935, 10936, 10937, 10938, 10939, 10940, 10941, 10942
 10943, 10944, 10945, 10946, 10947, 10948, 10949, 10950, 10951, 10952, 10953, 10954, 10955, 10956, 10957, 10958
 10959, 10960, 10961, 10962, 10963, 10964, 10965, 10966, 10967, 10968, 10969, 10970, 10971, 10972, 10973, 10974
 10975, 10976, 10977, 10978, 10979, 10980, 17285, 17286, 17287, 17288, 17289, 17290, 17291, 17292, 17293, 17294
** ... 6 like lines cut
*Nset, nset=t_Set-3, instance=Part-1-1
    3,    4,   10,   12,  135,  136,  137,  138,  139,  140,  141,  142,  143,  144,  145,  146
  147,  148,  149,  150,  151,  152,  153,  154,  155,  156,  157,  158,  159,  160,  161,  162
  163,  164,  165,  166,  167,  168,  169,  170,  171,  172,  173,  174,  175,  176,  177,  178
  179,  180,  181,  182,  183,  184,  185,  186,  187,  188,  189,  190,  191,  192,  193,  194
  195,  196,  197,  198,  199,  200,  201,  202,  203,  204,  205,  206,  207,  208,  209,  210
  211,  212,  213,  214,  215,  216,  217,  218,  219,  220,  221,  222,  223,  224,  225,  226
  227,  228,  229,  230,  231,  232,  233,  234,  235,  236,  237,  850,  851,  852,  853,  854
  855,  856,  857,  858,  859,  860,  861,  862,  863,  864,  865,  866,  867,  868,  869,  870
  871,  872,  873,  874,  875,  876,  877,  878,  879,  880,  881,  882,  883,  884,  885,  886
  887,  888,  889,  890,  891,  892,  893,  894,  895,  896,  897,  898,  899,  900,  901,  902
  903,  904,  905,  906,  907,  908,  909,  910,  911,  912,  913,  914,  915,  916,  917,  918
  919,  920,  921,  922,  923,  924,  925,  926,  927,  928,  929,  930,  931,  932,  933,  934
  935,  936,  937,  938,  939,  940,  941,  942,  943,  944,  945,  946,  947,  948,  949,  950
  951,  952, 1096, 1097, 1098, 1099, 1100, 1101, 1102, 1103, 1104, 1105, 1106, 1107, 1108, 1109
 1110, 1111, 1112, 1113, 1114, 1115, 1116, 1117, 1118, 1119, 1120, 1121, 1122, 1123, 1124, 1125
 1126, 1127, 1128, 1129, 1130, 1131, 1132, 1133, 1134, 1135, 1136, 1137, 1138, 1139, 1140, 1141
 1142, 1143, 1144, 1145, 1146, 1147, 1148, 1149, 1150, 1151, 1152, 1153, 1154, 1155, 1156, 1157
 1158, 1159, 1160, 1161, 1162, 1163, 1164, 1165, 1166, 1167, 1168, 1169, 1170, 1171, 1172, 1173
 1174, 1175, 1176, 1177, 1178, 1179, 1180, 1181, 1182, 1183, 1184, 1185, 1186, 1187, 1188, 1189
 1190, 1191, 1192, 1193, 1194, 1195, 1196, 1197, 1198, 1199, 1200, 1201, 1202, 1203, 1204, 1205
** ... 6 like lines cut
*Elset, elset=t_Set-3, instance=Part-1-1
  1977,  1978,  1979,  1980,  1981,  1982,  1983,  1984,  1985,  1986,  1987,  1988,  1989,  1990,  1991,  1992
  1993,  1994,  1995,  1996,  1997,  1998,  1999,  2000,  2001,  2002,  2003,  2004,  2005,  2006,  2007,  2008
  2009,  2010,  2011,  2012,  2013,  2014,  2015,  2016,  2017,  2018,  2019,  2020,  2021,  2022,  2023,  2024
  2025,  2026,  2027,  2028,  2029,  2030,  2031,  2032,  2033,  2034,  2035,  2036,  2037,  2038,  2039,  2040
  2041,  2042,  2043,  2044,  2045,  2046,  2047,  2048,  2049,  2050,  2051,  2052,  2053,  2054,  2055,  2056
  2057,  2058,  2059,  2060,  2061,  2062,  2063,  2064,  2065,  2066,  2067,  2068,  2069,  2070,  2071,  2072
  2073,  2074,  2075,  2076,  2077,  2078,  2079,  2080,  8589,  8590,  8591,  8592,  8593,  8594,  8595,  8596
  8597,  8598,  8599,  8600,  8601,  8602,  8603,  8604,  8605,  8606,  8607,  8608,  8609,  8610,  8611,  8612
  8613,  8614,  8615,  8616,  8617,  8618,  8619,  8620,  8621,  8622,  8623,  8624,  8625,  8626,  8627,  8628
  8629,  8630,  8631,  8632,  8633,  8634,  8635,  8636,  8637,  8638,  8639,  8640,  8641,  8642,  8643,  8644
  8645,  8646,  8647,  8648,  8649,  8650,  8651,  8652,  8653,  8654,  8655,  8656,  8657,  8658,  8659,  8660
  8661,  8662,  8663,  8664,  8665,  8666,  8667,  8668,  8669,  8670,  8671,  8672,  8673,  8674,  8675,  8676
  8677,  8678,  8679,  8680,  8681,  8682,  8683,  8684,  8685,  8686,  8687,  8688,  8689,  8690,  8691,  8692
 12938, 12939, 12940, 12941, 12942, 12943, 12944, 12945, 12946, 12947, 12948, 12949, 12950, 12951, 12952, 12953
 12954, 12955, 12956, 12957, 12958, 12959, 12960, 12961, 12962, 12963, 12964, 12965, 12966, 12967, 12968, 12969
 12970, 12971, 12972, 12973, 12974, 12975, 12976, 12977, 12978, 12979, 12980, 12981, 12982, 12983, 12984, 12985
 12986, 12987, 12988, 12989, 12990, 12991, 12992, 12993, 12994, 12995, 12996, 12997, 12998, 12999, 13000, 13001
 13002, 13003, 13004, 13005, 13006, 13007, 13008, 13009, 13010, 13011, 13012, 13013, 13014, 13015, 13016, 13017
 13018, 13019, 13020, 13021, 13022, 13023, 13024, 13025, 13026, 13027, 13028, 13029, 13030, 13031, 13032, 13033
 13034, 13035, 13036, 13037, 13038, 13039, 13040, 14998, 14999, 15000, 15001, 15002, 15003, 15004, 15005, 15006
** ... 6 like lines cut
*Nset, nset=_PickedSet7, internal
 2,
*Nset, nset=_PickedSet9, internal
 1,
** Constraint: Constraint-1
*Rigid Body, ref node=_PickedSet7, tie nset=t_Set-1
** Constraint: Constraint-2
*Rigid Body, ref node=_PickedSet9, tie nset=t_Set-3
*End Assembly
*Amplitude, name=Amp-1
             0.,              1.,              1.,              1.
*Amplitude, name=Amp-2
             0.,              0.,            0.01,            0.01,            0.02,            0.02,            0.03,            0.03
           0.04,            0.04,            0.05,            0.05,            0.06,            0.06,            0.07,            0.07
           0.08,            0.08,            0.09,            0.09,             0.1,             0.1,            0.11,            0.11
           0.12,            0.12,            0.13,            0.13,            0.14,            0.14,            0.15,            0.15
           0.16,            0.16,            0.17,            0.17,            0.18,            0.18,            0.19,            0.19
            0.2,             0.2,            0.21,            0.21,            0.22,            0.22,            0.23,            0.23
           0.24,            0.24,            0.25,            0.25,            0.26,            0.26,            0.27,            0.27
           0.28,            0.28,            0.29,            0.29,             0.3,             0.3,            0.31,            0.31
           0.32,            0.32,            0.33,            0.33,            0.34,            0.34,            0.35,            0.35
           0.36,            0.36,            0.37,            0.37,            0.38,            0.38,            0.39,            0.39
            0.4,             0.4,            0.41,            0.41,            0.42,            0.42,            0.43,            0.43
           0.44,            0.44,            0.45,            0.45,            0.46,            0.46,            0.47,            0.47
           0.48,            0.48,            0.49,            0.49,             0.5,             0.5,            0.51,            0.51
           0.52,            0.52,            0.53,            0.53,            0.54,            0.54,            0.55,            0.55
           0.56,            0.56,            0.57,            0.57,            0.58,            0.58,            0.59,            0.59
            0.6,             0.6,            0.61,            0.61,            0.62,            0.62,            0.63,            0.63
           0.64,            0.64,            0.65,            0.65,            0.66,            0.66,            0.67,            0.67
           0.68,            0.68,            0.69,            0.69,             0.7,             0.7,            0.71,            0.71
           0.72,            0.72,            0.73,            0.73,            0.74,            0.74,            0.75,            0.75
           0.76,            0.76,            0.77,            0.77,            0.78,            0.78,            0.79,            0.79
** ... 6 like lines cut
** 
** MATERIALS
** 
*Material, name=Steel
*Density
 7.8e-09,
*Elastic
210000., 0.3
*Plastic
210.,0.
** ----------------------------------------------------------------
** 
** STEP: Step-1
** 
*Step, name=Step-1, nlgeom=YES, inc=300
*Dynamic
0.01,1.,1e-15,0.01
** 
** BOUNDARY CONDITIONS
** 
** Name: BC-1 Type: Displacement/Rotation
*Boundary
Set-5, 1, 1
Set-5, 2, 2
Set-5, 3, 3
Set-5, 4, 4
Set-5, 5, 5
Set-5, 6, 6
** Name: BC-2 Type: Displacement/Rotation
*Boundary
Set-6, 1, 1
Set-6, 3, 3
Set-6, 4, 4
Set-6, 5, 5
Set-6, 6, 6
** Name: BC-3 Type: Displacement/Rotation
*Boundary
Set-8, 1, 1
** 
** LOADS
** 
** Name: Load-1   Type: Concentrated force
*Cload, amplitude=Amp-2
Set-7, 2, 2e+06
** 
** OUTPUT REQUESTS
** 
*Restart, write, frequency=0
** 
** FIELD OUTPUT: F-Output-1
** 
*Output, field, variable=PRESELECT, frequency=1
** 
** HISTORY OUTPUT: H-Output-1
** 
*Output, history, variable=PRESELECT, frequency=1
*End Step
