*Heading
** Job name: GNA-2 Model name: GNA
** Generated by: Abaqus/CAE 2019
*Preprint, echo=NO, model=NO, history=NO, contact=NO
**
** PARTS
**
*Part, name=Part-1
*Node
      1,   960.117615,   279.596466,           0.
      2,           0.,   279.596466,  -960.117615
      3,           0.,   559.192932,  -829.037598
      4,   829.037598,   559.192932,           0.
      5,           0.,   279.596466,   960.117615
      6,           0.,           0.,        1000.
      7,        1000.,           0.,           0.
      8,  -960.117615,   279.596466,           0.
      9,  -829.037598,   559.192932,           0.
     10,       -1000.,           0.,           0.
     11,           0.,   559.192932,   829.037598
     12,           0.,           0.,       -1000.
     13,   959.989075,   279.596466,  -15.7091866
     14,   959.603577,   279.596466,  -31.4141674
     15,   958.961121,   279.596466,  -47.1107368
     16,   958.061951,   279.596466,  -62.7946968
     17,    956.90625,   279.596466,  -78.4618454
     18,   955.494385,   279.596466,  -94.1079788
     19,   953.826721,   279.596466,  -109.728928
     20,   951.903687,   279.596466,  -125.320496
** ... 15888 like lines cut
*Element, type=S4R
   1,    1,   13, 1317,  242
   2,   13,   14, 1318, 1317
   3,   14,   15, 1319, 1318
   4,   15,   16, 1320, 1319
   5,   16,   17, 1321, 1320
   6,   17,   18, 1322, 1321
   7,   18,   19, 1323, 1322
   8,   19,   20, 1324, 1323
   9,   20,   21, 1325, 1324
  10,   21,   22, 1326, 1325
  11,   22,   23, 1327, 1326
  12,   23,   24, 1328, 1327
  13,   24,   25, 1329, 1328
  14,   25,   26, 1330, 1329
  15,   26,   27, 1331, 1330
  16,   27,   28, 1332, 1331
  17,   28,   29, 1333, 1332
  18,   29,   30, 1334, 1333
  19,   30,   31, 1335, 1334
  20,   31,   32, 1336, 1335
** ... 15500 like lines cut
*Nset, nset=Set-1, generate
     1,  15908,      1
*Elset, elset=Set-1, generate
     1,  15520,      1
** Section: Section-1
*Shell Section, elset=Set-1, material=Material-1
1.32, 5
*End Part
**  
**
** ASSEMBLY
**
*Assembly, name=Assembly
**  
*Instance, name=Part-1-1, part=Part-1
*End Instance
**  
*Node
      1,           0.,           0.,           0.
*Node
      2,           0.,   559.192932,           0.
*Nset, nset=Set-5
 1,
*Nset, nset=Set-6
 2,
*Nset, nset=Set-7
 2,
*Nset, nset=Set-8, instance=Part-1-1
 1,
*Nset, nset=t_Set-1, instance=Part-1-1
    3,    4,    9,   11,  128,  129,  130,  131,  132,  133,  134,  135,  136,  137,  138,  139
  140,  141,  142,  143,  144,  145,  146,  147,  148,  149,  150,  151,  152,  153,  154,  155
  156,  157,  158,  159,  160,  161,  162,  163,  164,  165,  166,  167,  168,  169,  170,  171
  172,  173,  174,  175,  176,  177,  178,  179,  180,  181,  182,  183,  184,  185,  186,  187
  188,  189,  190,  191,  192,  193,  194,  195,  196,  197,  198,  199,  200,  201,  202,  203
  204,  205,  206,  207,  208,  209,  210,  211,  212,  213,  214,  215,  216,  217,  218,  219
  220,  221,  222,  588,  589,  590,  591,  592,  593,  594,  595,  596,  597,  598,  599,  600
  601,  602,  603,  604,  605,  606,  607,  608,  609,  610,  611,  612,  613,  614,  615,  616
  617,  618,  619,  620,  621,  622,  623,  624,  625,  626,  627,  628,  629,  630,  631,  632
  633,  634,  635,  636,  637,  638,  639,  640,  641,  642,  643,  644,  645,  646,  647,  648
  649,  650,  651,  652,  653,  654,  655,  656,  657,  658,  659,  660,  661,  662,  663,  664
  665,  666,  667,  668,  669,  670,  671,  672,  673,  674,  675,  676,  677,  678,  679,  680
  681,  682,  915,  916,  917,  918,  919,  920,  921,  922,  923,  924,  925,  926,  927,  928
  929,  930,  931,  932,  933,  934,  935,  936,  937,  938,  939,  940,  941,  942,  943,  944
  945,  946,  947,  948,  949,  950,  951,  952,  953,  954,  955,  956,  957,  958,  959,  960
  961,  962,  963,  964,  965,  966,  967,  968,  969,  970,  971,  972,  973,  974,  975,  976
  977,  978,  979,  980,  981,  982,  983,  984,  985,  986,  987,  988,  989,  990,  991,  992
  993,  994,  995,  996,  997,  998,  999, 1000, 1001, 1002, 1003, 1004, 1005, 1006, 1007, 1008
 1009, 1010, 1011, 1125, 1126, 1127, 1128, 1129, 1130, 1131, 1132, 1133, 1134, 1135, 1136, 1137
 1138, 1139, 1140, 1141, 1142, 1143, 1144, 1145, 1146, 1147, 1148, 1149, 1150, 1151, 1152, 1153
** ... 5 like lines cut
*Elset, elset=t_Set-1, instance=Part-1-1
  1921,  1922,  1923,  1924,  1925,  1926,  1927,  1928,  1929,  1930,  1931,  1932,  1933,  1934,  1935,  1936
  1937,  1938,  1939,  1940,  1941,  1942,  1943,  1944,  1945,  1946,  1947,  1948,  1949,  1950,  1951,  1952
  1953,  1954,  1955,  1956,  1957,  1958,  1959,  1960,  1961,  1962,  1963,  1964,  1965,  1966,  1967,  1968
  1969,  1970,  1971,  1972,  1973,  1974,  1975,  1976,  1977,  1978,  1979,  1980,  1981,  1982,  1983,  1984
  1985,  1986,  1987,  1988,  1989,  1990,  1991,  1992,  1993,  1994,  1995,  1996,  1997,  1998,  1999,  2000
  2001,  2002,  2003,  2004,  2005,  2006,  2007,  2008,  2009,  2010,  2011,  2012,  2013,  2014,  2015,  2016
  5799,  5800,  5801,  5802,  5803,  5804,  5805,  5806,  5807,  5808,  5809,  5810,  5811,  5812,  5813,  5814
  5815,  5816,  5817,  5818,  5819,  5820,  5821,  5822,  5823,  5824,  5825,  5826,  5827,  5828,  5829,  5830
  5831,  5832,  5833,  5834,  5835,  5836,  5837,  5838,  5839,  5840,  5841,  5842,  5843,  5844,  5845,  5846
  5847,  5848,  5849,  5850,  5851,  5852,  5853,  5854,  5855,  5856,  5857,  5858,  5859,  5860,  5861,  5862
  5863,  5864,  5865,  5866,  5867,  5868,  5869,  5870,  5871,  5872,  5873,  5874,  5875,  5876,  5877,  5878
  5879,  5880,  5881,  5882,  5883,  5884,  5885,  5886,  5887,  5888,  5889,  5890,  5891,  5892,  5893,  5894
  9717,  9718,  9719,  9720,  9721,  9722,  9723,  9724,  9725,  9726,  9727,  9728,  9729,  9730,  9731,  9732
  9733,  9734,  9735,  9736,  9737,  9738,  9739,  9740,  9741,  9742,  9743,  9744,  9745,  9746,  9747,  9748
  9749,  9750,  9751,  9752,  9753,  9754,  9755,  9756,  9757,  9758,  9759,  9760,  9761,  9762,  9763,  9764
  9765,  9766,  9767,  9768,  9769,  9770,  9771,  9772,  9773,  9774,  9775,  9776,  9777,  9778,  9779,  9780
  9781,  9782,  9783,  9784,  9785,  9786,  9787,  9788,  9789,  9790,  9791,  9792,  9793,  9794,  9795,  9796
  9797,  9798,  9799,  9800,  9801,  9802,  9803,  9804,  9805,  9806,  9807,  9808,  9809,  9810,  9811,  9812
  9813,  9814, 13599, 13600, 13601, 13602, 13603, 13604, 13605, 13606, 13607, 13608, 13609, 13610, 13611, 13612
 13613, 13614, 13615, 13616, 13617, 13618, 13619, 13620, 13621, 13622, 13623, 13624, 13625, 13626, 13627, 13628
** ... 5 like lines cut
*Nset, nset=t_Set-3, instance=Part-1-1
    6,    7,   10,   12,  358,  359,  360,  361,  362,  363,  364,  365,  366,  367,  368,  369
  370,  371,  372,  373,  374,  375,  376,  377,  378,  379,  380,  381,  382,  383,  384,  385
  386,  387,  388,  389,  390,  391,  392,  393,  394,  395,  396,  397,  398,  399,  400,  401
  402,  403,  404,  405,  406,  407,  408,  409,  410,  411,  412,  413,  414,  415,  416,  417
  418,  419,  420,  421,  422,  423,  424,  425,  426,  427,  428,  429,  430,  431,  432,  433
  434,  435,  436,  437,  438,  439,  440,  441,  442,  443,  444,  445,  446,  447,  448,  449
  450,  451,  452,  453,  454,  798,  799,  800,  801,  802,  803,  804,  805,  806,  807,  808
  809,  810,  811,  812,  813,  814,  815,  816,  817,  818,  819,  820,  821,  822,  823,  824
  825,  826,  827,  828,  829,  830,  831,  832,  833,  834,  835,  836,  837,  838,  839,  840
  841,  842,  843,  844,  845,  846,  847,  848,  849,  850,  851,  852,  853,  854,  855,  856
  857,  858,  859,  860,  861,  862,  863,  864,  865,  866,  867,  868,  869,  870,  871,  872
  873,  874,  875,  876,  877,  878,  879,  880,  881,  882,  883,  884,  885,  886,  887,  888
  889,  890,  891,  892,  893,  894, 1030, 1031, 1032, 1033, 1034, 1035, 1036, 1037, 1038, 1039
 1040, 1041, 1042, 1043, 1044, 1045, 1046, 1047, 1048, 1049, 1050, 1051, 1052, 1053, 1054, 1055
 1056, 1057, 1058, 1059, 1060, 1061, 1062, 1063, 1064, 1065, 1066, 1067, 1068, 1069, 1070, 1071
 1072, 1073, 1074, 1075, 1076, 1077, 1078, 1079, 1080, 1081, 1082, 1083, 1084, 1085, 1086, 1087
 1088, 1089, 1090, 1091, 1092, 1093, 1094, 1095, 1096, 1097, 1098, 1099, 1100, 1101, 1102, 1103
 1104, 1105, 1106, 1107, 1108, 1109, 1110, 1111, 1112, 1113, 1114, 1115, 1116, 1117, 1118, 1119
 1120, 1121, 1122, 1123, 1124, 1222, 1223, 1224, 1225, 1226, 1227, 1228, 1229, 1230, 1231, 1232
 1233, 1234, 1235, 1236, 1237, 1238, 1239, 1240, 1241, 1242, 1243, 1244, 1245, 1246, 1247, 1248
** ... 5 like lines cut
*Elset, elset=t_Set-3, instance=Part-1-1
  3781,  3782,  3783,  3784,  3785,  3786,  3787,  3788,  3789,  3790,  3791,  3792,  3793,  3794,  3795,  3796
  3797,  3798,  3799,  3800,  3801,  3802,  3803,  3804,  3805,  3806,  3807,  3808,  3809,  3810,  3811,  3812
  3813,  3814,  3815,  3816,  3817,  3818,  3819,  3820,  3821,  3822,  3823,  3824,  3825,  3826,  3827,  3828
  3829,  3830,  3831,  3832,  3833,  3834,  3835,  3836,  3837,  3838,  3839,  3840,  3841,  3842,  3843,  3844
  3845,  3846,  3847,  3848,  3849,  3850,  3851,  3852,  3853,  3854,  3855,  3856,  3857,  3858,  3859,  3860
  3861,  3862,  3863,  3864,  3865,  3866,  3867,  3868,  3869,  3870,  3871,  3872,  3873,  3874,  3875,  3876
  3877,  3878,  7659,  7660,  7661,  7662,  7663,  7664,  7665,  7666,  7667,  7668,  7669,  7670,  7671,  7672
  7673,  7674,  7675,  7676,  7677,  7678,  7679,  7680,  7681,  7682,  7683,  7684,  7685,  7686,  7687,  7688
  7689,  7690,  7691,  7692,  7693,  7694,  7695,  7696,  7697,  7698,  7699,  7700,  7701,  7702,  7703,  7704
  7705,  7706,  7707,  7708,  7709,  7710,  7711,  7712,  7713,  7714,  7715,  7716,  7717,  7718,  7719,  7720
  7721,  7722,  7723,  7724,  7725,  7726,  7727,  7728,  7729,  7730,  7731,  7732,  7733,  7734,  7735,  7736
  7737,  7738,  7739,  7740,  7741,  7742,  7743,  7744,  7745,  7746,  7747,  7748,  7749,  7750,  7751,  7752
  7753,  7754,  7755,  7756, 11543, 11544, 11545, 11546, 11547, 11548, 11549, 11550, 11551, 11552, 11553, 11554
 11555, 11556, 11557, 11558, 11559, 11560, 11561, 11562, 11563, 11564, 11565, 11566, 11567, 11568, 11569, 11570
 11571, 11572, 11573, 11574, 11575, 11576, 11577, 11578, 11579, 11580, 11581, 11582, 11583, 11584, 11585, 11586
 11587, 11588, 11589, 11590, 11591, 11592, 11593, 11594, 11595, 11596, 11597, 11598, 11599, 11600, 11601, 11602
 11603, 11604, 11605, 11606, 11607, 11608, 11609, 11610, 11611, 11612, 11613, 11614, 11615, 11616, 11617, 11618
 11619, 11620, 11621, 11622, 11623, 11624, 11625, 11626, 11627, 11628, 11629, 11630, 11631, 11632, 11633, 11634
 11635, 11636, 11637, 11638, 15425, 15426, 15427, 15428, 15429, 15430, 15431, 15432, 15433, 15434, 15435, 15436
 15437, 15438, 15439, 15440, 15441, 15442, 15443, 15444, 15445, 15446, 15447, 15448, 15449, 15450, 15451, 15452
** ... 5 like lines cut
*Nset, nset=_PickedSet7, internal
 2,
*Nset, nset=_PickedSet9, internal
 1,
** Constraint: Constraint-1
*Rigid Body, ref node=_PickedSet7, tie nset=t_Set-1
** Constraint: Constraint-2
*Rigid Body, ref node=_PickedSet9, tie nset=t_Set-3
*End Assembly
** 
** MATERIALS
** 
*Material, name=Material-1
*Elastic
210000., 0.3
** 
** BOUNDARY CONDITIONS
** 
** Name: BC-1 Type: Displacement/Rotation
*Boundary
Set-5, 1, 1
Set-5, 2, 2
Set-5, 3, 3
Set-5, 4, 4
Set-5, 5, 5
Set-5, 6, 6
** Name: BC-2 Type: Displacement/Rotation
*Boundary
Set-6, 1, 1
Set-6, 3, 3
Set-6, 4, 4
Set-6, 5, 5
Set-6, 6, 6
** ----------------------------------------------------------------
** 
** STEP: Step-1
** 
*Step, name=Step-1, nlgeom=YES, inc=300
*Static, stabilize, factor=1e-09, allsdtol=0, continue=NO
0.01, 1., 1e-15, 0.01
** 
** BOUNDARY CONDITIONS
** 
** Name: BC-1 Type: Displacement/Rotation
*Boundary, op=NEW
Set-5, 1, 1
Set-5, 2, 2
Set-5, 3, 3
Set-5, 4, 4
Set-5, 5, 5
Set-5, 6, 6
** Name: BC-2 Type: Displacement/Rotation
*Boundary, op=NEW
Set-6, 1, 1
Set-6, 3, 3
Set-6, 4, 4
Set-6, 5, 5
Set-6, 6, 6
** Name: BC-3 Type: Displacement/Rotation
*Boundary, op=NEW
Set-8, 1, 1
** 
** LOADS
** 
** Name: Load-1   Type: Concentrated force
*Cload
Set-7, 2, 2e+06
** 
** OUTPUT REQUESTS
** 
*Restart, write, frequency=0
** 
** FIELD OUTPUT: F-Output-1
** 
*Output, field, variable=PRESELECT
** 
** HISTORY OUTPUT: H-Output-1
** 
*Output, history, variable=PRESELECT
*End Step
