*Heading
** Job name: LBA Model name: LBA
** Generated by: Abaqus/CAE 2019
*Preprint, echo=NO, model=NO, history=NO, contact=NO
**
** PARTS
**
*Part, name=Part-1
*Node
      1,           0.,           0.,        1000.
      2,           0.,   559.192932,   829.037598
      3,  -829.037598,   559.192932,           0.
      4,       -1000.,           0.,           0.
      5,           0.,   559.192932,  -829.037598
      6,           0.,           0.,       -1000.
      7,        1000.,           0.,           0.
      8,   829.037598,   559.192932,           0.
      9,           0.,   14.8347549,   999.889954
     10,           0.,   29.6662445,   999.559875
     11,           0.,   44.4912033,   999.009766
     12,           0.,   59.3063736,   998.239807
     13,           0.,     74.10849,   997.250183
     14,           0.,   88.8942947,   996.041077
     15,           0.,   103.660538,   994.612732
     16,           0.,   118.403969,   992.965515
     17,           0.,   133.121338,   991.099731
     18,           0.,   147.809418,   989.015869
     19,           0.,   162.464951,   986.714294
     20,           0.,   177.084747,   984.195618
** ... 15724 like lines cut
*Element, type=S4R
   1,    1,    9,  925,  276
   2,    9,   10,  926,  925
   3,   10,   11,  927,  926
   4,   11,   12,  928,  927
   5,   12,   13,  929,  928
   6,   13,   14,  930,  929
   7,   14,   15,  931,  930
   8,   15,   16,  932,  931
   9,   16,   17,  933,  932
  10,   17,   18,  934,  933
  11,   18,   19,  935,  934
  12,   19,   20,  936,  935
  13,   20,   21,  937,  936
  14,   21,   22,  938,  937
  15,   22,   23,  939,  938
  16,   23,   24,  940,  939
  17,   24,   25,  941,  940
  18,   25,   26,  942,  941
  19,   26,   27,  943,  942
  20,   27,   28,  944,  943
** ... 15340 like lines cut
*Nset, nset=Set-1, generate
     1,  15744,      1
*Elset, elset=Set-1, generate
     1,  15360,      1
** Section: Section-1
*Shell Section, elset=Set-1, material=Material-1
1.32, 5
*End Part
**  
**
** ASSEMBLY
**
*Assembly, name=Assembly
**  
*Instance, name=Part-1-1, part=Part-1
*End Instance
**  
*Node
      1,           0.,           0.,           0.
*Node
      2,           0.,   559.192932,           0.
*Nset, nset=Set-5
 1,
*Nset, nset=Set-6
 2,
*Nset, nset=Set-7
 2,
*Nset, nset=t_Set-1, instance=Part-1-1
   2,   3,   5,   8,  48,  49,  50,  51,  52,  53,  54,  55,  56,  57,  58,  59
  60,  61,  62,  63,  64,  65,  66,  67,  68,  69,  70,  71,  72,  73,  74,  75
  76,  77,  78,  79,  80,  81,  82,  83,  84,  85,  86,  87,  88,  89,  90,  91
  92,  93,  94,  95,  96,  97,  98,  99, 100, 101, 102, 103, 104, 105, 106, 107
 108, 109, 110, 111, 112, 113, 114, 115, 116, 117, 118, 119, 120, 121, 122, 123
 124, 125, 126, 127, 128, 129, 130, 131, 132, 133, 134, 135, 136, 137, 138, 139
 140, 141, 142, 411, 412, 413, 414, 415, 416, 417, 418, 419, 420, 421, 422, 423
 424, 425, 426, 427, 428, 429, 430, 431, 432, 433, 434, 435, 436, 437, 438, 439
 440, 441, 442, 443, 444, 445, 446, 447, 448, 449, 450, 451, 452, 453, 454, 455
 456, 457, 458, 459, 460, 461, 462, 463, 464, 465, 466, 467, 468, 469, 470, 471
 472, 473, 474, 475, 476, 477, 478, 479, 480, 481, 482, 483, 484, 485, 486, 487
 488, 489, 490, 491, 492, 493, 494, 495, 496, 497, 498, 499, 500, 501, 502, 503
 504, 505, 640, 641, 642, 643, 644, 645, 646, 647, 648, 649, 650, 651, 652, 653
 654, 655, 656, 657, 658, 659, 660, 661, 662, 663, 664, 665, 666, 667, 668, 669
 670, 671, 672, 673, 674, 675, 676, 677, 678, 679, 680, 681, 682, 683, 684, 685
 686, 687, 688, 689, 690, 691, 692, 693, 694, 695, 696, 697, 698, 699, 700, 701
 702, 703, 704, 705, 706, 707, 708, 709, 710, 711, 712, 713, 714, 715, 716, 717
 718, 719, 720, 721, 722, 723, 724, 725, 726, 727, 728, 729, 730, 731, 732, 733
 734, 735, 736, 737, 738, 739, 740, 741, 742, 743, 744, 745, 746, 747, 748, 749
 750, 751, 752, 753, 754, 755, 756, 757, 758, 759, 760, 761, 762, 763, 764, 765
** ... 4 like lines cut
*Elset, elset=t_Set-1, instance=Part-1-1
    40,    80,   120,   160,   200,   240,   280,   320,   360,   400,   440,   480,   520,   560,   600,   640
   680,   720,   760,   800,   840,   880,   920,   960,  1000,  1040,  1080,  1120,  1160,  1200,  1240,  1280
  1320,  1360,  1400,  1440,  1480,  1520,  1560,  1600,  1640,  1680,  1720,  1760,  1800,  1840,  1880,  1920
  1960,  2000,  2040,  2080,  2120,  2160,  2200,  2240,  2280,  2320,  2360,  2400,  2440,  2480,  2520,  2560
  2600,  2640,  2680,  2720,  2760,  2800,  2840,  2880,  2920,  2960,  3000,  3040,  3080,  3120,  3160,  3200
  3240,  3280,  3320,  3360,  3400,  3440,  3480,  3520,  3560,  3600,  3640,  3680,  3720,  3760,  3800,  3840
  3841,  3881,  3921,  3961,  4001,  4041,  4081,  4121,  4161,  4201,  4241,  4281,  4321,  4361,  4401,  4441
  4481,  4521,  4561,  4601,  4641,  4681,  4721,  4761,  4801,  4841,  4881,  4921,  4961,  5001,  5041,  5081
  5121,  5161,  5201,  5241,  5281,  5321,  5361,  5401,  5441,  5481,  5521,  5561,  5601,  5641,  5681,  5721
  5761,  5801,  5841,  5881,  5921,  5961,  6001,  6041,  6081,  6121,  6161,  6201,  6241,  6281,  6321,  6361
  6401,  6441,  6481,  6521,  6561,  6601,  6641,  6681,  6721,  6761,  6801,  6841,  6881,  6921,  6961,  7001
  7041,  7081,  7121,  7161,  7201,  7241,  7281,  7321,  7361,  7401,  7441,  7481,  7521,  7561,  7601,  7641
  7681,  7721,  7761,  7801,  7841,  7881,  7921,  7961,  8001,  8041,  8081,  8121,  8161,  8201,  8241,  8281
  8321,  8361,  8401,  8441,  8481,  8521,  8561,  8601,  8641,  8681,  8721,  8761,  8801,  8841,  8881,  8921
  8961,  9001,  9041,  9081,  9121,  9161,  9201,  9241,  9281,  9321,  9361,  9401,  9441,  9481,  9521,  9561
  9601,  9641,  9681,  9721,  9761,  9801,  9841,  9881,  9921,  9961, 10001, 10041, 10081, 10121, 10161, 10201
 10241, 10281, 10321, 10361, 10401, 10441, 10481, 10521, 10561, 10601, 10641, 10681, 10721, 10761, 10801, 10841
 10881, 10921, 10961, 11001, 11041, 11081, 11121, 11161, 11201, 11241, 11281, 11321, 11361, 11401, 11441, 11481
 11560, 11600, 11640, 11680, 11720, 11760, 11800, 11840, 11880, 11920, 11960, 12000, 12040, 12080, 12120, 12160
 12200, 12240, 12280, 12320, 12360, 12400, 12440, 12480, 12520, 12560, 12600, 12640, 12680, 12720, 12760, 12800
** ... 4 like lines cut
*Nset, nset=t_Set-3, instance=Part-1-1
   1,   4,   6,   7, 182, 183, 184, 185, 186, 187, 188, 189, 190, 191, 192, 193
 194, 195, 196, 197, 198, 199, 200, 201, 202, 203, 204, 205, 206, 207, 208, 209
 210, 211, 212, 213, 214, 215, 216, 217, 218, 219, 220, 221, 222, 223, 224, 225
 226, 227, 228, 229, 230, 231, 232, 233, 234, 235, 236, 237, 238, 239, 240, 241
 242, 243, 244, 245, 246, 247, 248, 249, 250, 251, 252, 253, 254, 255, 256, 257
 258, 259, 260, 261, 262, 263, 264, 265, 266, 267, 268, 269, 270, 271, 272, 273
 274, 275, 276, 316, 317, 318, 319, 320, 321, 322, 323, 324, 325, 326, 327, 328
 329, 330, 331, 332, 333, 334, 335, 336, 337, 338, 339, 340, 341, 342, 343, 344
 345, 346, 347, 348, 349, 350, 351, 352, 353, 354, 355, 356, 357, 358, 359, 360
 361, 362, 363, 364, 365, 366, 367, 368, 369, 370, 371, 372, 373, 374, 375, 376
 377, 378, 379, 380, 381, 382, 383, 384, 385, 386, 387, 388, 389, 390, 391, 392
 393, 394, 395, 396, 397, 398, 399, 400, 401, 402, 403, 404, 405, 406, 407, 408
 409, 410, 506, 507, 508, 509, 510, 511, 512, 513, 514, 515, 516, 517, 518, 519
 520, 521, 522, 523, 524, 525, 526, 527, 528, 529, 530, 531, 532, 533, 534, 535
 536, 537, 538, 539, 540, 541, 542, 543, 544, 545, 546, 547, 548, 549, 550, 551
 552, 553, 554, 555, 556, 557, 558, 559, 560, 561, 562, 563, 564, 565, 566, 567
 568, 569, 570, 571, 572, 573, 574, 575, 576, 577, 578, 579, 580, 581, 582, 583
 584, 585, 586, 587, 588, 589, 590, 591, 592, 593, 594, 595, 596, 597, 598, 599
 600, 830, 831, 832, 833, 834, 835, 836, 837, 838, 839, 840, 841, 842, 843, 844
 845, 846, 847, 848, 849, 850, 851, 852, 853, 854, 855, 856, 857, 858, 859, 860
** ... 4 like lines cut
*Elset, elset=t_Set-3, instance=Part-1-1
     1,    41,    81,   121,   161,   201,   241,   281,   321,   361,   401,   441,   481,   521,   561,   601
   641,   681,   721,   761,   801,   841,   881,   921,   961,  1001,  1041,  1081,  1121,  1161,  1201,  1241
  1281,  1321,  1361,  1401,  1441,  1481,  1521,  1561,  1601,  1641,  1681,  1721,  1761,  1801,  1841,  1881
  1921,  1961,  2001,  2041,  2081,  2121,  2161,  2201,  2241,  2281,  2321,  2361,  2401,  2441,  2481,  2521
  2561,  2601,  2641,  2681,  2721,  2761,  2801,  2841,  2881,  2921,  2961,  3001,  3041,  3081,  3121,  3161
  3201,  3241,  3281,  3321,  3361,  3401,  3441,  3481,  3521,  3561,  3601,  3641,  3681,  3721,  3761,  3801
  3880,  3920,  3960,  4000,  4040,  4080,  4120,  4160,  4200,  4240,  4280,  4320,  4360,  4400,  4440,  4480
  4520,  4560,  4600,  4640,  4680,  4720,  4760,  4800,  4840,  4880,  4920,  4960,  5000,  5040,  5080,  5120
  5160,  5200,  5240,  5280,  5320,  5360,  5400,  5440,  5480,  5520,  5560,  5600,  5640,  5680,  5720,  5760
  5800,  5840,  5880,  5920,  5960,  6000,  6040,  6080,  6120,  6160,  6200,  6240,  6280,  6320,  6360,  6400
  6440,  6480,  6520,  6560,  6600,  6640,  6680,  6720,  6760,  6800,  6840,  6880,  6920,  6960,  7000,  7040
  7080,  7120,  7160,  7200,  7240,  7280,  7320,  7360,  7400,  7440,  7480,  7520,  7560,  7600,  7640,  7680
  7720,  7760,  7800,  7840,  7880,  7920,  7960,  8000,  8040,  8080,  8120,  8160,  8200,  8240,  8280,  8320
  8360,  8400,  8440,  8480,  8520,  8560,  8600,  8640,  8680,  8720,  8760,  8800,  8840,  8880,  8920,  8960
  9000,  9040,  9080,  9120,  9160,  9200,  9240,  9280,  9320,  9360,  9400,  9440,  9480,  9520,  9560,  9600
  9640,  9680,  9720,  9760,  9800,  9840,  9880,  9920,  9960, 10000, 10040, 10080, 10120, 10160, 10200, 10240
 10280, 10320, 10360, 10400, 10440, 10480, 10520, 10560, 10600, 10640, 10680, 10720, 10760, 10800, 10840, 10880
 10920, 10960, 11000, 11040, 11080, 11120, 11160, 11200, 11240, 11280, 11320, 11360, 11400, 11440, 11480, 11520
 11521, 11561, 11601, 11641, 11681, 11721, 11761, 11801, 11841, 11881, 11921, 11961, 12001, 12041, 12081, 12121
 12161, 12201, 12241, 12281, 12321, 12361, 12401, 12441, 12481, 12521, 12561, 12601, 12641, 12681, 12721, 12761
** ... 4 like lines cut
*Nset, nset=_PickedSet7, internal
 2,
*Nset, nset=_PickedSet9, internal
 1,
** Constraint: Constraint-1
*Rigid Body, ref node=_PickedSet7, tie nset=t_Set-1
** Constraint: Constraint-2
*Rigid Body, ref node=_PickedSet9, tie nset=t_Set-3
*End Assembly
** 
** MATERIALS
** 
*Material, name=Material-1
*Elastic
210000., 0.3
** 
** BOUNDARY CONDITIONS
** 
** Name: BC-1 Type: Displacement/Rotation
*Boundary
Set-5, 1, 1
Set-5, 2, 2
Set-5, 3, 3
Set-5, 4, 4
Set-5, 5, 5
Set-5, 6, 6
** Name: BC-2 Type: Displacement/Rotation
*Boundary
Set-6, 1, 1
Set-6, 3, 3
Set-6, 4, 4
Set-6, 5, 5
Set-6, 6, 6
** ----------------------------------------------------------------
** 
** STEP: Step-1
** 
*Step, name=Step-1, nlgeom=NO, perturbation
*Buckle
10, , 18, 3099
** 
** BOUNDARY CONDITIONS
** 
** Name: BC-1 Type: Displacement/Rotation
*Boundary, op=NEW, load case=1
Set-5, 1, 1
Set-5, 2, 2
Set-5, 3, 3
Set-5, 4, 4
Set-5, 5, 5
Set-5, 6, 6
*Boundary, op=NEW, load case=2
Set-5, 1, 1
Set-5, 2, 2
Set-5, 3, 3
Set-5, 4, 4
Set-5, 5, 5
Set-5, 6, 6
** Name: BC-2 Type: Displacement/Rotation
*Boundary, op=NEW, load case=1
Set-6, 1, 1
Set-6, 3, 3
Set-6, 4, 4
Set-6, 5, 5
Set-6, 6, 6
*Boundary, op=NEW, load case=2
Set-6, 1, 1
Set-6, 3, 3
Set-6, 4, 4
Set-6, 5, 5
Set-6, 6, 6
** 
** LOADS
** 
** Name: Load-1   Type: Concentrated force
*Cload
Set-7, 2, 1.
** 
** OUTPUT REQUESTS
** 
*Restart, write, frequency=0
** 
** FIELD OUTPUT: F-Output-1
** 
*Output, field, variable=PRESELECT
*End Step
